<?xml version="1.0" encoding="UTF-8"?>

<!-- generated on 2021-10-04 07:44:15 by Eclipse SUMO netgenerate Version 1.10.0
<configuration xmlns:xsi="http://www.w3.org/2001/XMLSchema-instance" xsi:noNamespaceSchemaLocation="http://sumo.dlr.de/xsd/netgenerateConfiguration.xsd">

    <random_network>
        <rand value="true"/>
        <rand.iterations value="200"/>
    </random_network>

    <output>
        <output-file value="DoichieuYvaThemlanduong(flipY).net.xml"/>
    </output>

    <processing>
        <flip-y-axis value="true"/>
    </processing>

    <building_defaults>
        <default.lanenumber value="3"/>
    </building_defaults>

</configuration>
-->

<net version="1.9" junctionCornerDetail="5" lefthand="true" limitTurnSpeed="5.50" xmlns:xsi="http://www.w3.org/2001/XMLSchema-instance" xsi:noNamespaceSchemaLocation="http://sumo.dlr.de/xsd/net_file.xsd">

    <location netOffset="1263.68,1880.98" convBoundary="0.00,0.00,2463.28,3477.43" origBoundary="-1263.68,-1880.98,1199.60,1596.45" projParameter="!"/>

    <edge id=":1_0" function="internal">
        <lane id=":1_0_0" index="0" speed="5.98" length="9.08" shape="1255.95,-1897.92 1255.54,-1895.35 1254.41,-1893.77 1252.56,-1893.19 1249.99,-1893.60"/>
    </edge>
    <edge id=":1_1" function="internal">
        <lane id=":1_1_0" index="0" speed="13.89" length="28.69" shape="1255.95,-1897.92 1255.83,-1889.61 1255.54,-1883.92 1254.69,-1878.30 1252.87,-1870.21"/>
        <lane id=":1_1_1" index="1" speed="13.89" length="28.69" shape="1259.14,-1897.87 1259.02,-1889.35 1258.73,-1883.52 1257.85,-1877.75 1255.98,-1869.46"/>
        <lane id=":1_1_2" index="2" speed="13.89" length="28.69" shape="1262.34,-1897.82 1262.22,-1889.10 1261.91,-1883.11 1261.01,-1877.21 1259.09,-1868.71"/>
    </edge>
    <edge id=":1_4" function="internal">
        <lane id=":1_4_0" index="0" speed="10.70" length="9.42" shape="1262.34,-1897.82 1263.21,-1889.76 1263.80,-1888.59"/>
    </edge>
    <edge id=":1_5" function="internal">
        <lane id=":1_5_0" index="0" speed="3.65" length="2.34" shape="1262.34,-1897.82 1263.13,-1896.60 1263.92,-1896.19"/>
    </edge>
    <edge id=":1_24" function="internal">
        <lane id=":1_24_0" index="0" speed="10.70" length="17.88" shape="1263.80,-1888.59 1266.08,-1884.09 1270.96,-1880.81 1277.86,-1879.91"/>
    </edge>
    <edge id=":1_25" function="internal">
        <lane id=":1_25_0" index="0" speed="3.65" length="2.34" shape="1263.92,-1896.19 1264.73,-1896.58 1265.54,-1897.77"/>
    </edge>
    <edge id=":1_6" function="internal">
        <lane id=":1_6_0" index="0" speed="7.06" length="11.26" shape="1277.50,-1889.51 1275.02,-1889.93 1273.27,-1891.44 1272.24,-1894.01 1271.94,-1897.67"/>
    </edge>
    <edge id=":1_7" function="internal">
        <lane id=":1_7_0" index="0" speed="13.89" length="29.14" shape="1277.50,-1889.51 1269.20,-1889.34 1263.51,-1889.81 1257.93,-1891.15 1249.99,-1893.60"/>
        <lane id=":1_7_1" index="1" speed="13.89" length="29.14" shape="1277.62,-1886.31 1269.00,-1886.14 1263.09,-1886.62 1257.30,-1888.00 1249.04,-1890.54"/>
        <lane id=":1_7_2" index="2" speed="13.89" length="29.14" shape="1277.74,-1883.11 1268.80,-1882.93 1262.67,-1883.42 1256.66,-1884.85 1248.09,-1887.49"/>
    </edge>
    <edge id=":1_10" function="internal">
        <lane id=":1_10_0" index="0" speed="11.83" length="25.53" shape="1277.74,-1883.11 1270.82,-1881.99 1265.41,-1879.22 1261.50,-1874.79 1259.09,-1868.71"/>
    </edge>
    <edge id=":1_11" function="internal">
        <lane id=":1_11_0" index="0" speed="3.65" length="4.67" shape="1277.74,-1883.11 1276.57,-1882.26 1276.20,-1881.45 1276.63,-1880.67 1277.86,-1879.91"/>
    </edge>
    <edge id=":1_12" function="internal">
        <lane id=":1_12_0" index="0" speed="8.56" length="12.96" shape="1268.43,-1866.47 1269.64,-1869.44 1271.65,-1871.60 1274.48,-1872.96 1278.10,-1873.52"/>
    </edge>
    <edge id=":1_13" function="internal">
        <lane id=":1_13_0" index="0" speed="13.89" length="30.80" shape="1268.43,-1866.47 1270.42,-1875.39 1271.41,-1881.91 1271.79,-1888.52 1271.94,-1897.67"/>
        <lane id=":1_13_1" index="1" speed="13.89" length="30.80" shape="1265.31,-1867.22 1267.29,-1876.03 1268.25,-1882.31 1268.60,-1888.68 1268.74,-1897.72"/>
        <lane id=":1_13_2" index="2" speed="13.89" length="30.80" shape="1262.20,-1867.97 1264.17,-1876.67 1265.10,-1882.71 1265.41,-1888.84 1265.54,-1897.77"/>
    </edge>
    <edge id=":1_16" function="internal">
        <lane id=":1_16_0" index="0" speed="11.13" length="7.46" shape="1262.20,-1867.97 1262.59,-1874.47 1262.23,-1875.35"/>
    </edge>
    <edge id=":1_17" function="internal">
        <lane id=":1_17_0" index="0" speed="3.65" length="2.34" shape="1262.20,-1867.97 1261.70,-1869.32 1261.02,-1869.90"/>
    </edge>
    <edge id=":1_26" function="internal">
        <lane id=":1_26_0" index="0" speed="11.13" length="19.53" shape="1262.23,-1875.35 1260.37,-1879.89 1255.53,-1884.23 1248.09,-1887.49"/>
    </edge>
    <edge id=":1_27" function="internal">
        <lane id=":1_27_0" index="0" speed="3.65" length="2.34" shape="1261.02,-1869.90 1260.15,-1869.69 1259.09,-1868.71"/>
    </edge>
    <edge id=":1_18" function="internal">
        <lane id=":1_18_0" index="0" speed="7.67" length="12.31" shape="1245.25,-1878.32 1249.06,-1876.78 1251.60,-1874.91 1252.87,-1872.72 1252.87,-1870.21"/>
    </edge>
    <edge id=":1_19" function="internal">
        <lane id=":1_19_0" index="0" speed="13.89" length="32.38" shape="1245.25,-1878.32 1254.32,-1875.61 1261.43,-1874.04 1268.66,-1873.40 1278.10,-1873.52"/>
        <lane id=":1_19_1" index="1" speed="13.89" length="32.38" shape="1246.19,-1881.38 1255.10,-1878.69 1261.84,-1877.16 1268.71,-1876.58 1277.98,-1876.71"/>
        <lane id=":1_19_2" index="2" speed="13.89" length="32.38" shape="1247.14,-1884.43 1255.88,-1881.77 1262.25,-1880.29 1268.75,-1879.75 1277.86,-1879.91"/>
    </edge>
    <edge id=":1_22" function="internal">
        <lane id=":1_22_0" index="0" speed="10.06" length="28.06" shape="1247.14,-1884.43 1255.08,-1883.16 1260.79,-1884.96 1264.28,-1889.83 1265.54,-1897.77"/>
    </edge>
    <edge id=":1_23" function="internal">
        <lane id=":1_23_0" index="0" speed="3.65" length="4.67" shape="1247.14,-1884.43 1248.53,-1884.84 1249.15,-1885.49 1249.00,-1886.37 1248.09,-1887.49"/>
    </edge>
    <edge id=":10_0" function="internal">
        <lane id=":10_0_0" index="0" speed="5.61" length="9.32" shape="1100.67,-1954.65 1099.44,-1952.09 1097.95,-1951.05 1096.19,-1951.53 1094.17,-1953.52"/>
    </edge>
    <edge id=":10_1" function="internal">
        <lane id=":10_1_0" index="0" speed="13.89" length="32.04" shape="1100.67,-1954.65 1098.02,-1946.05 1095.86,-1940.10 1092.42,-1935.02 1085.94,-1929.05"/>
        <lane id=":10_1_1" index="1" speed="13.89" length="32.04" shape="1103.71,-1953.65 1100.90,-1944.74 1098.43,-1938.33 1094.66,-1932.80 1087.96,-1926.57"/>
        <lane id=":10_1_2" index="2" speed="13.89" length="32.04" shape="1106.75,-1952.64 1103.78,-1943.51 1100.96,-1936.58 1096.85,-1930.55 1089.99,-1924.09"/>
    </edge>
    <edge id=":10_4" function="internal">
        <lane id=":10_4_0" index="0" speed="11.62" length="11.60" shape="1106.75,-1952.64 1104.43,-1942.58 1104.51,-1941.31"/>
    </edge>
    <edge id=":10_5" function="internal">
        <lane id=":10_5_0" index="0" speed="3.65" length="2.34" shape="1106.75,-1952.64 1107.13,-1951.25 1107.76,-1950.62"/>
    </edge>
    <edge id=":10_24" function="internal">
        <lane id=":10_24_0" index="0" speed="11.62" length="19.93" shape="1104.51,-1941.31 1104.88,-1934.74 1108.10,-1929.12 1114.07,-1925.72"/>
    </edge>
    <edge id=":10_25" function="internal">
        <lane id=":10_25_0" index="0" speed="3.65" length="2.34" shape="1107.76,-1950.62 1108.65,-1950.75 1109.78,-1951.64"/>
    </edge>
    <edge id=":10_6" function="internal">
        <lane id=":10_6_0" index="0" speed="8.44" length="16.13" shape="1116.92,-1934.89 1114.84,-1936.44 1113.97,-1939.41 1114.31,-1943.81 1115.86,-1949.63"/>
    </edge>
    <edge id=":10_7" function="internal">
        <lane id=":10_7_0" index="0" speed="13.89" length="32.12" shape="1116.92,-1934.89 1108.72,-1938.01 1103.68,-1941.50 1099.57,-1946.34 1094.17,-1953.52"/>
        <lane id=":10_7_1" index="1" speed="13.89" length="32.12" shape="1115.97,-1931.84 1107.43,-1935.13 1101.91,-1938.93 1097.34,-1944.11 1091.65,-1951.54"/>
        <lane id=":10_7_2" index="2" speed="13.89" length="32.12" shape="1115.02,-1928.78 1106.23,-1932.24 1100.17,-1936.41 1095.07,-1941.96 1089.13,-1949.57"/>
    </edge>
    <edge id=":10_10" function="internal">
        <lane id=":10_10_0" index="0" speed="13.89" length="26.58" shape="1115.02,-1928.78 1108.22,-1930.11 1101.77,-1929.78 1095.70,-1927.77 1089.99,-1924.09"/>
    </edge>
    <edge id=":10_11" function="internal">
        <lane id=":10_11_0" index="0" speed="3.65" length="4.67" shape="1115.02,-1928.78 1113.64,-1928.37 1113.02,-1927.73 1113.16,-1926.84 1114.07,-1925.72"/>
    </edge>
    <edge id=":10_12" function="internal">
        <lane id=":10_12_0" index="0" speed="11.59" length="17.10" shape="1096.06,-1916.66 1099.72,-1919.00 1103.62,-1920.28 1107.77,-1920.48 1112.18,-1919.61"/>
    </edge>
    <edge id=":10_13" function="internal">
        <lane id=":10_13_0" index="0" speed="13.89" length="37.32" shape="1096.06,-1916.66 1103.39,-1923.81 1108.55,-1931.36 1112.42,-1939.80 1115.86,-1949.63"/>
        <lane id=":10_13_1" index="1" speed="13.89" length="37.32" shape="1094.04,-1919.14 1101.21,-1926.06 1106.02,-1933.10 1109.54,-1941.04 1112.82,-1950.63"/>
        <lane id=":10_13_2" index="2" speed="13.89" length="37.32" shape="1092.01,-1921.62 1099.03,-1928.31 1103.49,-1934.84 1106.66,-1942.27 1109.78,-1951.64"/>
    </edge>
    <edge id=":10_16" function="internal">
        <lane id=":10_16_0" index="0" speed="11.78" length="7.70" shape="1092.01,-1921.62 1096.18,-1926.91 1096.32,-1927.86"/>
    </edge>
    <edge id=":10_17" function="internal">
        <lane id=":10_17_0" index="0" speed="3.65" length="2.45" shape="1092.01,-1921.62 1092.44,-1922.99 1092.24,-1923.87 1092.13,-1923.91"/>
    </edge>
    <edge id=":10_26" function="internal">
        <lane id=":10_26_0" index="0" speed="11.78" length="23.78" shape="1096.32,-1927.86 1097.09,-1933.34 1094.74,-1940.89 1089.13,-1949.57"/>
    </edge>
    <edge id=":10_27" function="internal">
        <lane id=":10_27_0" index="0" speed="3.65" length="2.22" shape="1092.13,-1923.91 1091.42,-1924.23 1089.99,-1924.09"/>
    </edge>
    <edge id=":10_18" function="internal">
        <lane id=":10_18_0" index="0" speed="8.65" length="16.51" shape="1081.58,-1943.65 1085.10,-1938.58 1087.01,-1934.46 1087.29,-1931.28 1085.94,-1929.05"/>
    </edge>
    <edge id=":10_19" function="internal">
        <lane id=":10_19_0" index="0" speed="13.89" length="37.74" shape="1081.58,-1943.65 1088.25,-1935.53 1094.97,-1928.87 1102.65,-1923.58 1112.18,-1919.61"/>
        <lane id=":10_19_1" index="1" speed="13.89" length="37.74" shape="1084.09,-1945.62 1090.52,-1937.68 1096.71,-1931.38 1103.85,-1926.47 1113.13,-1922.67"/>
        <lane id=":10_19_2" index="2" speed="13.89" length="37.74" shape="1086.61,-1947.59 1092.79,-1939.82 1098.44,-1933.90 1105.04,-1929.36 1114.07,-1925.72"/>
    </edge>
    <edge id=":10_22" function="internal">
        <lane id=":10_22_0" index="0" speed="9.61" length="30.30" shape="1086.61,-1947.59 1093.06,-1942.14 1099.68,-1941.11 1105.57,-1944.33 1109.78,-1951.64"/>
    </edge>
    <edge id=":10_23" function="internal">
        <lane id=":10_23_0" index="0" speed="3.65" length="4.67" shape="1086.61,-1947.59 1087.98,-1947.14 1088.86,-1947.32 1089.24,-1948.13 1089.13,-1949.57"/>
    </edge>
    <edge id=":1004_0" function="internal">
        <lane id=":1004_0_0" index="0" speed="6.60" length="7.16" shape="1128.81,-2190.18 1126.94,-2189.87 1125.27,-2190.13 1123.81,-2190.97 1122.55,-2192.39"/>
    </edge>
    <edge id=":1004_1" function="internal">
        <lane id=":1004_1_0" index="0" speed="13.89" length="22.33" shape="1128.81,-2190.18 1121.96,-2187.93 1117.46,-2185.62 1113.82,-2182.12 1109.56,-2176.33"/>
        <lane id=":1004_1_1" index="1" speed="13.89" length="22.33" shape="1129.74,-2187.12 1123.50,-2185.07 1119.39,-2182.97 1116.07,-2179.79 1112.19,-2174.51"/>
        <lane id=":1004_1_2" index="2" speed="13.89" length="22.33" shape="1130.67,-2184.05 1125.04,-2182.21 1121.33,-2180.32 1118.33,-2177.45 1114.82,-2172.69"/>
    </edge>
    <edge id=":1004_4" function="internal">
        <lane id=":1004_4_0" index="0" speed="3.65" length="2.34" shape="1130.67,-2184.05 1129.75,-2182.94 1129.60,-2182.06"/>
    </edge>
    <edge id=":1004_15" function="internal">
        <lane id=":1004_15_0" index="0" speed="3.65" length="2.34" shape="1129.60,-2182.06 1130.22,-2181.41 1131.60,-2180.99"/>
    </edge>
    <edge id=":1004_5" function="internal">
        <lane id=":1004_5_0" index="0" speed="13.70" length="15.80" shape="1122.72,-2167.23 1125.09,-2170.44 1127.13,-2172.36 1129.65,-2173.63 1133.46,-2174.87"/>
        <lane id=":1004_5_1" index="1" speed="13.89" length="15.80" shape="1120.09,-2169.05 1122.84,-2172.78 1125.20,-2175.01 1128.11,-2176.49 1132.53,-2177.93"/>
        <lane id=":1004_5_2" index="2" speed="13.89" length="15.80" shape="1117.45,-2170.87 1120.58,-2175.11 1123.26,-2177.66 1126.57,-2179.35 1131.60,-2180.99"/>
    </edge>
    <edge id=":1004_8" function="internal">
        <lane id=":1004_8_0" index="0" speed="11.32" length="7.79" shape="1117.45,-2170.87 1120.61,-2176.44 1120.99,-2177.78"/>
        <lane id=":1004_8_1" index="1" speed="10.79" length="6.49" shape="1117.45,-2170.87 1119.71,-2175.27 1119.96,-2176.79"/>
    </edge>
    <edge id=":1004_10" function="internal">
        <lane id=":1004_10_0" index="0" speed="3.65" length="2.34" shape="1117.45,-2170.87 1117.48,-2172.31 1117.05,-2173.10"/>
    </edge>
    <edge id=":1004_16" function="internal">
        <lane id=":1004_16_0" index="0" speed="11.32" length="13.38" shape="1120.99,-2177.78 1122.07,-2181.58 1121.83,-2186.29 1119.90,-2190.59"/>
    </edge>
    <edge id=":1004_17" function="internal">
        <lane id=":1004_17_0" index="0" speed="10.79" length="12.68" shape="1119.96,-2176.79 1120.43,-2179.72 1119.61,-2184.22 1117.26,-2188.79"/>
    </edge>
    <edge id=":1004_18" function="internal">
        <lane id=":1004_18_0" index="0" speed="3.65" length="2.34" shape="1117.05,-2173.10 1116.16,-2173.22 1114.82,-2172.69"/>
    </edge>
    <edge id=":1004_11" function="internal">
        <lane id=":1004_11_0" index="0" speed="6.97" length="7.55" shape="1109.32,-2183.39 1110.29,-2181.55 1110.65,-2179.76 1110.41,-2178.02 1109.56,-2176.33"/>
    </edge>
    <edge id=":1004_12" function="internal">
        <lane id=":1004_12_0" index="0" speed="11.53" length="23.54" shape="1111.97,-2185.19 1116.11,-2180.54 1120.91,-2177.78 1126.39,-2176.91 1132.53,-2177.93"/>
        <lane id=":1004_12_1" index="1" speed="10.52" length="19.44" shape="1114.61,-2186.99 1118.03,-2183.15 1122.00,-2180.87 1126.52,-2180.15 1131.60,-2180.99"/>
    </edge>
    <edge id=":1004_14" function="internal">
        <lane id=":1004_14_0" index="0" speed="3.65" length="4.67" shape="1114.61,-2186.99 1115.95,-2186.44 1116.83,-2186.56 1117.27,-2187.34 1117.26,-2188.79"/>
    </edge>
    <edge id=":1010_0" function="internal">
        <lane id=":1010_0_0" index="0" speed="13.89" length="45.80" shape="1163.76,-2431.89 1158.02,-2440.93 1149.98,-2447.94 1139.65,-2452.92 1127.03,-2455.85"/>
        <lane id=":1010_0_1" index="1" speed="13.89" length="42.58" shape="1160.85,-2430.56 1155.53,-2438.89 1148.05,-2445.35 1138.40,-2449.95 1126.59,-2452.68"/>
    </edge>
    <edge id=":1010_2" function="internal">
        <lane id=":1010_2_0" index="0" speed="11.13" length="14.52" shape="1157.94,-2429.23 1152.22,-2437.36 1147.98,-2439.08"/>
        <lane id=":1010_2_1" index="1" speed="10.68" length="11.25" shape="1157.94,-2429.23 1152.67,-2436.38 1150.40,-2437.04"/>
    </edge>
    <edge id=":1010_4" function="internal">
        <lane id=":1010_4_0" index="0" speed="3.65" length="2.56" shape="1157.94,-2429.23 1156.72,-2429.98 1155.82,-2430.02 1155.68,-2429.84"/>
    </edge>
    <edge id=":1010_14" function="internal">
        <lane id=":1010_14_0" index="0" speed="11.13" length="21.55" shape="1147.98,-2439.08 1145.30,-2440.16 1137.49,-2438.09 1129.11,-2431.64"/>
    </edge>
    <edge id=":1010_15" function="internal">
        <lane id=":1010_15_0" index="0" speed="10.68" length="21.89" shape="1150.40,-2437.04 1146.28,-2438.23 1139.07,-2435.62 1131.36,-2429.37"/>
    </edge>
    <edge id=":1010_16" function="internal">
        <lane id=":1010_16_0" index="0" speed="3.65" length="2.11" shape="1155.68,-2429.84 1155.26,-2429.32 1155.03,-2427.90"/>
    </edge>
    <edge id=":1010_5" function="internal">
        <lane id=":1010_5_0" index="0" speed="7.04" length="13.62" shape="1138.11,-2422.55 1141.99,-2425.87 1145.13,-2427.42 1147.54,-2427.21 1149.22,-2425.23"/>
    </edge>
    <edge id=":1010_6" function="internal">
        <lane id=":1010_6_0" index="0" speed="10.55" length="38.14" shape="1135.86,-2424.82 1141.57,-2433.70 1141.63,-2442.21 1136.49,-2448.99 1126.59,-2452.68"/>
        <lane id=":1010_6_1" index="1" speed="9.51" length="30.69" shape="1133.61,-2427.09 1138.21,-2434.24 1138.25,-2441.09 1134.11,-2446.54 1126.15,-2449.51"/>
    </edge>
    <edge id=":1010_8" function="internal">
        <lane id=":1010_8_0" index="0" speed="3.65" length="4.67" shape="1133.61,-2427.09 1133.90,-2428.51 1133.62,-2429.36 1132.77,-2429.64 1131.36,-2429.37"/>
    </edge>
    <edge id=":1010_9" function="internal">
        <lane id=":1010_9_0" index="0" speed="5.55" length="9.42" shape="1124.83,-2440.00 1127.64,-2439.25 1128.92,-2437.98 1128.65,-2436.20 1126.85,-2433.91"/>
    </edge>
    <edge id=":1010_10" function="internal">
        <lane id=":1010_10_0" index="0" speed="13.89" length="29.73" shape="1124.83,-2440.00 1133.41,-2438.10 1140.34,-2435.00 1145.61,-2430.71 1149.22,-2425.23"/>
        <lane id=":1010_10_1" index="1" speed="13.89" length="32.94" shape="1125.27,-2443.17 1134.66,-2441.06 1142.27,-2437.59 1148.09,-2432.76 1152.13,-2426.56"/>
        <lane id=":1010_10_2" index="2" speed="13.89" length="36.16" shape="1125.71,-2446.34 1135.91,-2444.02 1144.19,-2440.18 1150.57,-2434.80 1155.03,-2427.90"/>
    </edge>
    <edge id=":1010_13" function="internal">
        <lane id=":1010_13_0" index="0" speed="3.65" length="2.34" shape="1125.71,-2446.34 1127.01,-2446.97 1127.52,-2447.71"/>
    </edge>
    <edge id=":1010_17" function="internal">
        <lane id=":1010_17_0" index="0" speed="3.65" length="2.34" shape="1127.52,-2447.71 1127.23,-2448.55 1126.15,-2449.51"/>
    </edge>
    <edge id=":1026_0" function="internal">
        <lane id=":1026_0_0" index="0" speed="6.51" length="8.91" shape="969.11,-2088.31 968.42,-2085.98 967.15,-2084.41 965.30,-2083.61 962.86,-2083.57"/>
    </edge>
    <edge id=":1026_1" function="internal">
        <lane id=":1026_1_0" index="0" speed="13.89" length="26.11" shape="969.11,-2088.31 967.97,-2080.44 967.44,-2075.01 967.45,-2069.55 967.95,-2061.62"/>
        <lane id=":1026_1_1" index="1" speed="13.89" length="26.11" shape="972.28,-2087.84 971.17,-2080.18 970.65,-2074.89 970.66,-2069.58 971.14,-2061.85"/>
        <lane id=":1026_1_2" index="2" speed="13.89" length="26.11" shape="975.45,-2087.37 974.36,-2079.92 973.85,-2074.77 973.86,-2069.60 974.34,-2062.08"/>
    </edge>
    <edge id=":1026_4" function="internal">
        <lane id=":1026_4_0" index="0" speed="3.65" length="2.34" shape="975.45,-2087.37 976.06,-2086.07 976.79,-2085.56"/>
    </edge>
    <edge id=":1026_15" function="internal">
        <lane id=":1026_15_0" index="0" speed="3.65" length="2.34" shape="976.79,-2085.56 977.64,-2085.84 978.61,-2086.91"/>
    </edge>
    <edge id=":1026_5" function="internal">
        <lane id=":1026_5_0" index="0" speed="13.89" length="24.00" shape="983.91,-2062.78 983.48,-2069.67 983.48,-2074.41 983.95,-2079.13 984.94,-2085.97"/>
        <lane id=":1026_5_1" index="1" speed="13.89" length="24.00" shape="980.72,-2062.55 980.27,-2069.65 980.27,-2074.53 980.75,-2079.39 981.78,-2086.44"/>
        <lane id=":1026_5_2" index="2" speed="13.89" length="24.00" shape="977.53,-2062.32 977.07,-2069.62 977.06,-2074.65 977.56,-2079.65 978.61,-2086.91"/>
    </edge>
    <edge id=":1026_8" function="internal">
        <lane id=":1026_8_0" index="0" speed="11.50" length="8.79" shape="977.53,-2062.32 976.14,-2069.56 975.46,-2070.80"/>
        <lane id=":1026_8_1" index="1" speed="11.01" length="7.24" shape="977.53,-2062.32 976.21,-2068.14 975.49,-2069.19"/>
    </edge>
    <edge id=":1026_10" function="internal">
        <lane id=":1026_10_0" index="0" speed="3.65" length="2.34" shape="977.53,-2062.32 976.64,-2063.45 975.82,-2063.80"/>
    </edge>
    <edge id=":1026_16" function="internal">
        <lane id=":1026_16_0" index="0" speed="11.50" length="17.00" shape="975.46,-2070.80 973.17,-2074.99 968.61,-2078.60 962.46,-2080.40"/>
    </edge>
    <edge id=":1026_17" function="internal">
        <lane id=":1026_17_0" index="0" speed="11.01" length="16.32" shape="975.49,-2069.19 973.19,-2072.57 968.47,-2075.60 962.05,-2077.22"/>
    </edge>
    <edge id=":1026_18" function="internal">
        <lane id=":1026_18_0" index="0" speed="3.65" length="2.34" shape="975.82,-2063.80 975.05,-2063.34 974.34,-2062.08"/>
    </edge>
    <edge id=":1026_11" function="internal">
        <lane id=":1026_11_0" index="0" speed="7.43" length="10.24" shape="960.83,-2067.70 963.81,-2067.00 965.98,-2065.75 967.37,-2063.96 967.95,-2061.62"/>
    </edge>
    <edge id=":1026_12" function="internal">
        <lane id=":1026_12_0" index="0" speed="11.37" length="29.26" shape="961.24,-2070.88 969.24,-2070.99 975.32,-2073.62 979.50,-2078.77 981.78,-2086.44"/>
        <lane id=":1026_12_1" index="1" speed="10.37" length="24.17" shape="961.65,-2074.05 968.25,-2074.14 973.28,-2076.32 976.73,-2080.57 978.61,-2086.91"/>
    </edge>
    <edge id=":1026_14" function="internal">
        <lane id=":1026_14_0" index="0" speed="3.65" length="4.67" shape="961.65,-2074.05 962.94,-2074.69 963.44,-2075.43 963.14,-2076.28 962.05,-2077.22"/>
    </edge>
    <edge id=":1056_0" function="internal">
        <lane id=":1056_0_0" index="0" speed="11.23" length="32.17" shape="1854.06,-1423.27 1851.09,-1432.11 1846.49,-1437.06 1839.85,-1438.34 1830.78,-1436.18"/>
        <lane id=":1056_0_1" index="1" speed="10.09" length="25.75" shape="1850.93,-1422.61 1848.46,-1429.38 1844.46,-1433.40 1838.93,-1434.66 1831.88,-1433.17"/>
        <lane id=":1056_0_2" index="2" speed="8.95" length="20.03" shape="1847.80,-1421.96 1845.88,-1427.22 1842.76,-1430.34 1838.47,-1431.33 1832.98,-1430.17"/>
    </edge>
    <edge id=":1056_3" function="internal">
        <lane id=":1056_3_0" index="0" speed="3.90" length="2.86" shape="1836.29,-1421.16 1837.07,-1421.32 1837.69,-1421.18 1838.13,-1420.73 1838.40,-1419.98"/>
        <lane id=":1056_3_1" index="1" speed="6.07" length="8.58" shape="1835.19,-1424.16 1837.54,-1424.66 1839.38,-1424.23 1840.71,-1422.90 1841.54,-1420.64"/>
        <lane id=":1056_3_2" index="2" speed="7.65" length="14.30" shape="1834.08,-1427.16 1838.00,-1427.99 1841.07,-1427.29 1843.29,-1425.06 1844.67,-1421.30"/>
    </edge>
    <edge id=":1092_0" function="internal">
        <lane id=":1092_0_0" index="0" speed="13.89" length="39.69" shape="1027.81,-2335.80 1021.21,-2327.57 1016.80,-2318.67 1013.74,-2309.02 1011.16,-2298.52"/>
        <lane id=":1092_0_1" index="1" speed="13.89" length="39.69" shape="1030.06,-2333.52 1023.59,-2325.54 1019.48,-2317.16 1016.72,-2308.03 1014.28,-2297.78"/>
        <lane id=":1092_0_2" index="2" speed="13.89" length="39.69" shape="1032.32,-2331.25 1025.98,-2323.50 1022.17,-2315.65 1019.69,-2307.05 1017.39,-2297.03"/>
    </edge>
    <edge id=":1092_3" function="internal">
        <lane id=":1092_3_0" index="0" speed="13.55" length="9.04" shape="1032.32,-2331.25 1028.10,-2324.78 1027.95,-2323.47"/>
        <lane id=":1092_3_1" index="1" speed="13.20" length="7.22" shape="1032.32,-2331.25 1029.13,-2325.75 1029.12,-2324.89"/>
    </edge>
    <edge id=":1092_5" function="internal">
        <lane id=":1092_5_0" index="0" speed="3.65" length="2.50" shape="1032.32,-2331.25 1032.03,-2329.84 1032.31,-2328.99 1032.46,-2328.93"/>
    </edge>
    <edge id=":1092_15" function="internal">
        <lane id=":1092_15_0" index="0" speed="13.55" length="27.64" shape="1027.95,-2323.47 1027.21,-2317.03 1029.65,-2308.01 1035.43,-2297.71"/>
    </edge>
    <edge id=":1092_16" function="internal">
        <lane id=":1092_16_0" index="0" speed="13.20" length="27.52" shape="1029.12,-2324.89 1029.03,-2318.63 1032.01,-2309.88 1038.08,-2299.51"/>
    </edge>
    <edge id=":1092_17" function="internal">
        <lane id=":1092_17_0" index="0" speed="3.65" length="2.17" shape="1032.46,-2328.93 1033.15,-2328.70 1034.57,-2328.98"/>
    </edge>
    <edge id=":1092_6" function="internal">
        <lane id=":1092_6_0" index="0" speed="10.50" length="21.65" shape="1046.01,-2304.91 1041.56,-2312.04 1038.91,-2317.67 1038.09,-2321.80 1039.07,-2324.43"/>
    </edge>
    <edge id=":1092_7" function="internal">
        <lane id=":1092_7_0" index="0" speed="10.43" length="38.84" shape="1043.37,-2303.11 1035.46,-2310.25 1026.79,-2311.53 1019.13,-2307.26 1014.28,-2297.78"/>
        <lane id=":1092_7_1" index="1" speed="9.39" length="31.16" shape="1040.72,-2301.31 1034.38,-2307.04 1027.42,-2308.06 1021.28,-2304.64 1017.39,-2297.03"/>
    </edge>
    <edge id=":1092_9" function="internal">
        <lane id=":1092_9_0" index="0" speed="3.65" length="4.67" shape="1040.72,-2301.31 1039.38,-2301.85 1038.50,-2301.73 1038.06,-2300.95 1038.08,-2299.51"/>
    </edge>
    <edge id=":1092_10" function="internal">
        <lane id=":1092_10_0" index="0" speed="5.50" length="9.61" shape="1026.72,-2294.80 1027.77,-2297.65 1029.13,-2298.78 1030.80,-2298.20 1032.78,-2295.91"/>
    </edge>
    <edge id=":1092_11" function="internal">
        <lane id=":1092_11_0" index="0" speed="13.89" length="34.53" shape="1026.72,-2294.80 1028.63,-2304.10 1030.21,-2311.13 1033.14,-2317.40 1039.07,-2324.43"/>
        <lane id=":1092_11_1" index="1" speed="13.89" length="34.53" shape="1023.61,-2295.54 1025.65,-2305.08 1027.53,-2312.63 1030.75,-2319.43 1036.82,-2326.70"/>
        <lane id=":1092_11_2" index="2" speed="13.89" length="34.53" shape="1020.50,-2296.29 1022.67,-2306.07 1024.85,-2314.14 1028.37,-2321.47 1034.57,-2328.98"/>
    </edge>
    <edge id=":1092_14" function="internal">
        <lane id=":1092_14_0" index="0" speed="3.65" length="2.34" shape="1020.50,-2296.29 1020.00,-2297.64 1019.32,-2298.22"/>
    </edge>
    <edge id=":1092_18" function="internal">
        <lane id=":1092_18_0" index="0" speed="3.65" length="2.34" shape="1019.32,-2298.22 1018.44,-2298.01 1017.39,-2297.03"/>
    </edge>
    <edge id=":115_0" function="internal">
        <lane id=":115_0_0" index="0" speed="5.67" length="9.24" shape="1434.99,-1586.45 1433.43,-1584.15 1431.79,-1583.32 1430.05,-1583.94 1428.22,-1586.02"/>
    </edge>
    <edge id=":115_1" function="internal">
        <lane id=":115_1_0" index="0" speed="13.89" length="28.91" shape="1434.99,-1586.45 1430.85,-1579.70 1425.92,-1574.45 1420.18,-1570.68 1413.64,-1568.40"/>
        <lane id=":115_1_1" index="1" speed="13.89" length="31.76" shape="1437.85,-1585.02 1433.33,-1577.66 1427.90,-1571.91 1421.57,-1567.78 1414.34,-1565.27"/>
        <lane id=":115_1_2" index="2" speed="13.89" length="34.61" shape="1440.71,-1583.59 1435.80,-1575.61 1429.88,-1569.38 1422.95,-1564.89 1415.03,-1562.15"/>
    </edge>
    <edge id=":115_4" function="internal">
        <lane id=":115_4_0" index="0" speed="3.65" length="2.34" shape="1440.71,-1583.59 1440.90,-1582.16 1441.43,-1581.45"/>
    </edge>
    <edge id=":115_14" function="internal">
        <lane id=":115_14_0" index="0" speed="3.65" length="2.34" shape="1441.43,-1581.45 1442.33,-1581.45 1443.58,-1582.16"/>
    </edge>
    <edge id=":115_5" function="internal">
        <lane id=":115_5_0" index="0" speed="13.89" length="43.16" shape="1417.11,-1552.78 1427.12,-1556.21 1435.82,-1561.77 1443.22,-1569.47 1449.31,-1579.31"/>
        <lane id=":115_5_1" index="1" speed="13.89" length="40.31" shape="1416.41,-1555.90 1425.73,-1559.10 1433.84,-1564.31 1440.74,-1571.52 1446.44,-1580.74"/>
    </edge>
    <edge id=":115_7" function="internal">
        <lane id=":115_7_0" index="0" speed="10.73" length="13.79" shape="1415.72,-1559.02 1424.63,-1562.58 1427.32,-1565.81"/>
        <lane id=":115_7_1" index="1" speed="10.23" length="10.68" shape="1415.72,-1559.02 1423.52,-1562.34 1424.76,-1564.16"/>
    </edge>
    <edge id=":115_9" function="internal">
        <lane id=":115_9_0" index="0" speed="3.65" length="2.52" shape="1415.72,-1559.02 1416.72,-1560.06 1416.94,-1560.93 1416.82,-1561.08"/>
    </edge>
    <edge id=":115_15" function="internal">
        <lane id=":115_15_0" index="0" speed="10.73" length="20.04" shape="1427.32,-1565.81 1429.28,-1568.16 1429.61,-1575.48 1425.56,-1584.25"/>
    </edge>
    <edge id=":115_16" function="internal">
        <lane id=":115_16_0" index="0" speed="10.23" length="19.97" shape="1424.76,-1564.16 1427.13,-1567.60 1426.84,-1574.44 1422.90,-1582.47"/>
    </edge>
    <edge id=":115_17" function="internal">
        <lane id=":115_17_0" index="0" speed="3.65" length="2.15" shape="1416.82,-1561.08 1416.37,-1561.63 1415.03,-1562.15"/>
    </edge>
    <edge id=":115_10" function="internal">