<?xml version="1.0" encoding="UTF-8"?>

<!-- generated on 2021-10-04 07:58:17 by Eclipse SUMO netgenerate Version 1.10.0
<configuration xmlns:xsi="http://www.w3.org/2001/XMLSchema-instance" xsi:noNamespaceSchemaLocation="http://sumo.dlr.de/xsd/netgenerateConfiguration.xsd">

    <random_network>
        <rand value="true"/>
        <rand.iterations value="200"/>
    </random_network>

    <output>
        <output-file value="DoichieuY(flipY).net.xml"/>
    </output>

    <processing>
        <flip-y-axis value="true"/>
    </processing>

    <bicycle>
        <bikelanes.guess.from-permissions value="true"/>
    </bicycle>

</configuration>
-->

<net version="1.9" junctionCornerDetail="5" lefthand="true" limitTurnSpeed="5.50" xmlns:xsi="http://www.w3.org/2001/XMLSchema-instance" xsi:noNamespaceSchemaLocation="http://sumo.dlr.de/xsd/net_file.xsd">

    <location netOffset="1263.68,1880.98" convBoundary="0.00,0.00,2463.28,3477.43" origBoundary="-1263.68,-1880.98,1199.60,1596.45" projParameter="!"/>

    <edge id=":1_0" function="internal">
        <lane id=":1_0_0" index="0" allow="bicycle" speed="4.48" length="5.43" width="1.00" shape="1260.12,-1889.64 1259.87,-1888.10 1259.20,-1887.16 1258.09,-1886.81 1256.56,-1887.06"/>
    </edge>
    <edge id=":1_1" function="internal">
        <lane id=":1_1_0" index="0" allow="bicycle" speed="13.89" length="14.69" width="1.00" shape="1260.12,-1889.64 1260.05,-1885.28 1259.89,-1882.29 1259.43,-1879.34 1258.46,-1875.10"/>
    </edge>
    <edge id=":1_2" function="internal">
        <lane id=":1_2_0" index="0" allow="bicycle" speed="8.56" length="2.76" width="1.00" shape="1260.12,-1889.64 1260.71,-1886.95"/>
    </edge>
    <edge id=":1_3" function="internal">
        <lane id=":1_3_0" index="0" disallow="bicycle" speed="6.12" length="3.99" shape="1262.22,-1889.61 1261.78,-1886.90 1261.06,-1885.88"/>
    </edge>
    <edge id=":1_4" function="internal">
        <lane id=":1_4_0" index="0" disallow="bicycle" speed="13.89" length="15.16" shape="1262.22,-1889.61 1262.15,-1885.11 1261.98,-1882.03 1261.50,-1878.99 1260.51,-1874.61"/>
    </edge>
    <edge id=":1_5" function="internal">
        <lane id=":1_5_0" index="0" disallow="bicycle" speed="7.94" length="4.71" shape="1262.22,-1889.61 1262.96,-1886.15 1263.58,-1885.15"/>
    </edge>
    <edge id=":1_6" function="internal">
        <lane id=":1_6_0" index="0" disallow="bicycle" speed="3.65" length="2.34" shape="1262.22,-1889.61 1263.00,-1888.40 1263.79,-1887.98"/>
    </edge>
    <edge id=":1_28" function="internal">
        <lane id=":1_28_0" index="0" allow="bicycle" speed="8.56" length="15.06" width="1.00" shape="1260.71,-1886.95 1261.05,-1885.41 1263.60,-1881.47 1267.19,-1878.59 1271.25,-1877.56"/>
    </edge>
    <edge id=":1_29" function="internal">
        <lane id=":1_29_0" index="0" disallow="bicycle" speed="6.12" length="5.59" shape="1261.06,-1885.88 1260.59,-1885.23 1258.64,-1884.62 1255.93,-1885.05"/>
    </edge>
    <edge id=":1_30" function="internal">
        <lane id=":1_30_0" index="0" disallow="bicycle" speed="7.94" length="9.80" shape="1263.58,-1885.15 1264.99,-1882.90 1267.88,-1880.51 1271.17,-1879.66"/>
    </edge>
    <edge id=":1_31" function="internal">
        <lane id=":1_31_0" index="0" disallow="bicycle" speed="3.65" length="2.34" shape="1263.79,-1887.98 1264.60,-1888.37 1265.42,-1889.56"/>
    </edge>
    <edge id=":1_7" function="internal">
        <lane id=":1_7_0" index="0" allow="bicycle" speed="5.28" length="6.57" width="1.00" shape="1270.97,-1884.95 1269.43,-1885.19 1268.34,-1886.03 1267.70,-1887.47 1267.51,-1889.52"/>
    </edge>
    <edge id=":1_8" function="internal">
        <lane id=":1_8_0" index="0" allow="bicycle" speed="13.89" length="14.69" width="1.00" shape="1270.97,-1884.95 1266.62,-1884.86 1263.64,-1885.09 1260.72,-1885.78 1256.56,-1887.06"/>
    </edge>
    <edge id=":1_9" function="internal">
        <lane id=":1_9_0" index="0" allow="bicycle" speed="9.51" length="16.75" width="1.00" shape="1270.97,-1884.95 1267.01,-1884.00 1263.22,-1881.73 1260.18,-1878.61 1258.46,-1875.10"/>
    </edge>
    <edge id=":1_10" function="internal">
        <lane id=":1_10_0" index="0" disallow="bicycle" speed="6.71" length="10.08" shape="1271.05,-1882.86 1268.54,-1883.19 1266.77,-1884.42 1265.73,-1886.54 1265.42,-1889.56"/>
    </edge>
    <edge id=":1_11" function="internal">
        <lane id=":1_11_0" index="0" disallow="bicycle" speed="13.89" length="15.41" shape="1271.05,-1882.86 1266.49,-1882.76 1263.36,-1883.00 1260.30,-1883.72 1255.93,-1885.05"/>
    </edge>
    <edge id=":1_12" function="internal">
        <lane id=":1_12_0" index="0" disallow="bicycle" speed="8.90" length="14.08" shape="1271.05,-1882.86 1267.71,-1882.05 1264.51,-1880.15 1261.95,-1877.54 1260.51,-1874.61"/>
    </edge>
    <edge id=":1_13" function="internal">
        <lane id=":1_13_0" index="0" disallow="bicycle" speed="3.65" length="4.67" shape="1271.05,-1882.86 1269.88,-1882.01 1269.51,-1881.20 1269.94,-1880.41 1271.17,-1879.66"/>
    </edge>
    <edge id=":1_14" function="internal">
        <lane id=":1_14_0" index="0" allow="bicycle" speed="6.45" length="7.57" width="1.00" shape="1265.66,-1873.37 1266.37,-1875.14 1267.54,-1876.42 1269.16,-1877.23 1271.25,-1877.56"/>
    </edge>
    <edge id=":1_15" function="internal">
        <lane id=":1_15_0" index="0" allow="bicycle" speed="13.89" length="16.32" width="1.00" shape="1265.66,-1873.37 1266.73,-1878.08 1267.25,-1881.36 1267.44,-1884.68 1267.51,-1889.52"/>
    </edge>
    <edge id=":1_16" function="internal">
        <lane id=":1_16_0" index="0" allow="bicycle" speed="8.90" length="3.40" width="1.00" shape="1265.66,-1873.37 1265.51,-1876.76"/>
    </edge>
    <edge id=":1_17" function="internal">
        <lane id=":1_17_0" index="0" disallow="bicycle" speed="7.69" length="4.08" shape="1263.62,-1873.86 1264.59,-1876.31 1265.55,-1877.39"/>
    </edge>
    <edge id=":1_18" function="internal">
        <lane id=":1_18_0" index="0" disallow="bicycle" speed="13.89" length="15.86" shape="1263.62,-1873.86 1264.66,-1878.44 1265.16,-1881.63 1265.34,-1884.85 1265.42,-1889.56"/>
    </edge>
    <edge id=":1_19" function="internal">
        <lane id=":1_19_0" index="0" disallow="bicycle" speed="8.29" length="4.40" shape="1263.62,-1873.86 1263.44,-1877.15 1262.95,-1878.13"/>
    </edge>
    <edge id=":1_20" function="internal">
        <lane id=":1_20_0" index="0" disallow="bicycle" speed="3.65" length="2.34" shape="1263.62,-1873.86 1263.12,-1875.21 1262.43,-1875.79"/>
    </edge>
    <edge id=":1_32" function="internal">
        <lane id=":1_32_0" index="0" allow="bicycle" speed="8.90" length="14.22" width="1.00" shape="1265.51,-1876.76 1265.48,-1877.41 1263.53,-1881.50 1260.36,-1884.95 1256.56,-1887.06"/>
    </edge>
    <edge id=":1_33" function="internal">
        <lane id=":1_33_0" index="0" disallow="bicycle" speed="7.69" length="6.24" shape="1265.55,-1877.39 1266.17,-1878.09 1268.36,-1879.21 1271.17,-1879.66"/>
    </edge>
    <edge id=":1_34" function="internal">
        <lane id=":1_34_0" index="0" disallow="bicycle" speed="8.29" length="10.13" shape="1262.95,-1878.13 1261.77,-1880.49 1259.10,-1883.32 1255.93,-1885.05"/>
    </edge>
    <edge id=":1_35" function="internal">
        <lane id=":1_35_0" index="0" disallow="bicycle" speed="3.65" length="2.34" shape="1262.43,-1875.79 1261.56,-1875.59 1260.51,-1874.61"/>
    </edge>
    <edge id=":1_21" function="internal">
        <lane id=":1_21_0" index="0" allow="bicycle" speed="5.73" length="7.11" width="1.00" shape="1254.36,-1879.99 1256.46,-1879.12 1257.84,-1878.01 1258.51,-1876.67 1258.46,-1875.10"/>
    </edge>
    <edge id=":1_22" function="internal">
        <lane id=":1_22_0" index="0" allow="bicycle" speed="13.89" length="17.21" width="1.00" shape="1254.36,-1879.99 1259.24,-1878.50 1262.66,-1877.71 1266.16,-1877.45 1271.25,-1877.56"/>
    </edge>
    <edge id=":1_23" function="internal">
        <lane id=":1_23_0" index="0" allow="bicycle" speed="7.95" length="17.93" width="1.00" shape="1254.36,-1879.99 1258.59,-1880.04 1262.85,-1882.13 1266.15,-1885.53 1267.51,-1889.52"/>
    </edge>
    <edge id=":1_24" function="internal">
        <lane id=":1_24_0" index="0" disallow="bicycle" speed="7.08" length="10.33" shape="1254.98,-1882.00 1257.88,-1880.75 1259.76,-1879.10 1260.64,-1877.05 1260.51,-1874.61"/>
    </edge>
    <edge id=":1_25" function="internal">
        <lane id=":1_25_0" index="0" disallow="bicycle" speed="13.89" length="16.49" shape="1254.98,-1882.00 1259.66,-1880.57 1262.94,-1879.80 1266.29,-1879.55 1271.17,-1879.66"/>
    </edge>
    <edge id=":1_26" function="internal">
        <lane id=":1_26_0" index="0" disallow="bicycle" speed="7.31" length="14.22" shape="1254.98,-1882.00 1258.33,-1882.04 1261.71,-1883.69 1264.33,-1886.39 1265.42,-1889.56"/>
    </edge>
    <edge id=":1_27" function="internal">
        <lane id=":1_27_0" index="0" disallow="bicycle" speed="3.65" length="4.67" shape="1254.98,-1882.00 1256.37,-1882.41 1256.99,-1883.05 1256.84,-1883.93 1255.93,-1885.05"/>
    </edge>
    <edge id=":10_0" function="internal">
        <lane id=":10_0_0" index="0" allow="bicycle" speed="4.07" length="5.25" width="1.00" shape="1101.28,-1942.79 1100.59,-1941.35 1099.74,-1940.76 1098.76,-1941.03 1097.62,-1942.15"/>
    </edge>
    <edge id=":10_1" function="internal">
        <lane id=":10_1_0" index="0" allow="bicycle" speed="13.89" length="15.58" width="1.00" shape="1101.28,-1942.79 1099.89,-1938.37 1098.72,-1935.34 1096.89,-1932.76 1093.54,-1929.70"/>
    </edge>
    <edge id=":10_2" function="internal">
        <lane id=":10_2_0" index="0" allow="bicycle" speed="9.07" length="2.91" width="1.00" shape="1101.28,-1942.79 1100.91,-1939.89"/>
    </edge>
    <edge id=":10_3" function="internal">
        <lane id=":10_3_0" index="0" disallow="bicycle" speed="5.90" length="4.25" shape="1103.27,-1942.13 1101.89,-1939.25 1101.02,-1938.65"/>
    </edge>
    <edge id=":10_4" function="internal">
        <lane id=":10_4_0" index="0" disallow="bicycle" speed="13.89" length="16.78" shape="1103.27,-1942.13 1101.77,-1937.38 1100.48,-1934.13 1098.49,-1931.36 1094.86,-1928.07"/>
    </edge>
    <edge id=":10_5" function="internal">
        <lane id=":10_5_0" index="0" disallow="bicycle" speed="8.48" length="5.90" shape="1103.27,-1942.13 1102.72,-1938.02 1102.98,-1936.29"/>
    </edge>
    <edge id=":10_6" function="internal">
        <lane id=":10_6_0" index="0" disallow="bicycle" speed="3.65" length="2.34" shape="1103.27,-1942.13 1103.65,-1940.74 1104.29,-1940.11"/>
    </edge>
    <edge id=":10_28" function="internal">
        <lane id=":10_28_0" index="0" allow="bicycle" speed="9.07" length="16.59" width="1.00" shape="1100.91,-1939.89 1100.67,-1937.91 1101.57,-1932.68 1103.82,-1928.21 1107.24,-1925.65"/>
    </edge>
    <edge id=":10_29" function="internal">
        <lane id=":10_29_0" index="0" disallow="bicycle" speed="5.90" length="6.23" shape="1101.02,-1938.65 1100.21,-1938.08 1098.24,-1938.61 1095.96,-1940.85"/>
    </edge>
    <edge id=":10_30" function="internal">
        <lane id=":10_30_0" index="0" disallow="bicycle" speed="8.48" length="10.38" shape="1102.98,-1936.29 1103.38,-1933.58 1105.13,-1929.79 1107.87,-1927.65"/>
    </edge>
    <edge id=":10_31" function="internal">
        <lane id=":10_31_0" index="0" disallow="bicycle" speed="3.65" length="2.34" shape="1104.29,-1940.11 1105.17,-1940.23 1106.31,-1941.12"/>
    </edge>
    <edge id=":10_7" function="internal">
        <lane id=":10_7_0" index="0" allow="bicycle" speed="6.11" length="8.68" width="1.00" shape="1109.44,-1932.71 1108.11,-1933.59 1107.48,-1935.17 1107.54,-1937.46 1108.30,-1940.46"/>
    </edge>
    <edge id=":10_8" function="internal">
        <lane id=":10_8_0" index="0" allow="bicycle" speed="13.89" length="15.55" width="1.00" shape="1109.44,-1932.71 1105.20,-1934.30 1102.57,-1936.04 1100.42,-1938.48 1097.62,-1942.15"/>
    </edge>
    <edge id=":10_9" function="internal">
        <lane id=":10_9_0" index="0" allow="bicycle" speed="11.30" length="16.62" width="1.00" shape="1109.44,-1932.71 1105.58,-1933.23 1101.15,-1932.80 1096.89,-1931.58 1093.54,-1929.70"/>
    </edge>
    <edge id=":10_10" function="internal">
        <lane id=":10_10_0" index="0" disallow="bicycle" speed="7.37" length="12.06" shape="1108.81,-1930.71 1106.64,-1931.99 1105.49,-1934.15 1105.38,-1937.19 1106.31,-1941.12"/>
    </edge>
    <edge id=":10_11" function="internal">
        <lane id=":10_11_0" index="0" disallow="bicycle" speed="13.89" length="16.83" shape="1108.81,-1930.71 1104.22,-1932.41 1101.35,-1934.27 1099.00,-1936.89 1095.96,-1940.85"/>
    </edge>
    <edge id=":10_12" function="internal">
        <lane id=":10_12_0" index="0" disallow="bicycle" speed="10.73" length="14.58" shape="1108.81,-1930.71 1105.43,-1931.16 1101.54,-1930.79 1097.80,-1929.72 1094.86,-1928.07"/>
    </edge>
    <edge id=":10_13" function="internal">
        <lane id=":10_13_0" index="0" disallow="bicycle" speed="3.65" length="4.67" shape="1108.81,-1930.71 1107.43,-1930.30 1106.81,-1929.65 1106.96,-1928.77 1107.87,-1927.65"/>
    </edge>
    <edge id=":10_14" function="internal">
        <lane id=":10_14_0" index="0" allow="bicycle" speed="8.61" length="9.58" width="1.00" shape="1098.22,-1923.97 1100.27,-1925.29 1102.46,-1926.01 1104.78,-1926.13 1107.24,-1925.65"/>
    </edge>
    <edge id=":10_15" function="internal">
        <lane id=":10_15_0" index="0" allow="bicycle" speed="13.89" length="19.81" width="1.00" shape="1098.22,-1923.97 1102.52,-1927.83 1104.93,-1931.07 1106.50,-1934.87 1108.30,-1940.46"/>
    </edge>
    <edge id=":10_16" function="internal">
        <lane id=":10_16_0" index="0" allow="bicycle" speed="9.19" length="5.30" width="1.00" shape="1098.22,-1923.97 1100.40,-1927.57 1100.51,-1928.66"/>
    </edge>
    <edge id=":10_17" function="internal">
        <lane id=":10_17_0" index="0" disallow="bicycle" speed="9.64" length="4.54" shape="1096.89,-1925.60 1099.39,-1927.21 1100.88,-1927.70"/>
    </edge>
    <edge id=":10_18" function="internal">
        <lane id=":10_18_0" index="0" disallow="bicycle" speed="13.89" length="18.61" shape="1096.89,-1925.60 1100.93,-1929.23 1103.17,-1932.28 1104.62,-1935.87 1106.31,-1941.12"/>
    </edge>
    <edge id=":10_19" function="internal">
        <lane id=":10_19_0" index="0" disallow="bicycle" speed="8.60" length="4.21" shape="1096.89,-1925.60 1098.60,-1928.57 1098.65,-1929.35"/>
    </edge>
    <edge id=":10_20" function="internal">
        <lane id=":10_20_0" index="0" disallow="bicycle" speed="3.65" length="2.34" shape="1096.89,-1925.60 1097.31,-1926.97 1097.12,-1927.85"/>
    </edge>
    <edge id=":10_32" function="internal">
        <lane id=":10_32_0" index="0" allow="bicycle" speed="9.19" length="14.15" width="1.00" shape="1100.51,-1928.66 1100.88,-1932.54 1099.87,-1937.77 1097.62,-1942.15"/>
    </edge>
    <edge id=":10_33" function="internal">
        <lane id=":10_33_0" index="0" disallow="bicycle" speed="9.64" length="7.11" shape="1100.88,-1927.70 1102.06,-1928.09 1104.88,-1928.24 1107.87,-1927.65"/>
    </edge>
    <edge id=":10_34" function="internal">
        <lane id=":10_34_0" index="0" disallow="bicycle" speed="8.60" length="12.09" shape="1098.65,-1929.35 1098.87,-1932.75 1097.91,-1937.16 1095.96,-1940.85"/>
    </edge>
    <edge id=":10_35" function="internal">
        <lane id=":10_35_0" index="0" disallow="bicycle" speed="3.65" length="2.34" shape="1097.12,-1927.85 1096.30,-1928.21 1094.86,-1928.07"/>
    </edge>
    <edge id=":10_21" function="internal">
        <lane id=":10_21_0" index="0" allow="bicycle" speed="6.27" length="8.88" width="1.00" shape="1091.79,-1937.58 1093.57,-1934.96 1094.45,-1932.77 1094.44,-1931.02 1093.54,-1929.70"/>
    </edge>
    <edge id=":10_22" function="internal">
        <lane id=":10_22_0" index="0" allow="bicycle" speed="13.89" length="20.07" width="1.00" shape="1091.79,-1937.58 1095.44,-1932.88 1098.28,-1929.82 1101.74,-1927.65 1107.24,-1925.65"/>
    </edge>
    <edge id=":10_23" function="internal">
        <lane id=":10_23_0" index="0" allow="bicycle" speed="7.50" length="18.92" width="1.00" shape="1091.79,-1937.58 1095.58,-1935.43 1100.68,-1935.38 1105.47,-1937.16 1108.30,-1940.46"/>
    </edge>
    <edge id=":10_24" function="internal">
        <lane id=":10_24_0" index="0" disallow="bicycle" speed="7.50" length="12.16" shape="1093.45,-1938.88 1095.68,-1935.47 1096.66,-1932.53 1096.39,-1930.07 1094.86,-1928.07"/>
    </edge>
    <edge id=":10_25" function="internal">
        <lane id=":10_25_0" index="0" disallow="bicycle" speed="13.89" length="18.78" shape="1093.45,-1938.88 1096.85,-1934.47 1099.50,-1931.58 1102.72,-1929.54 1107.87,-1927.65"/>
    </edge>
    <edge id=":10_26" function="internal">
        <lane id=":10_26_0" index="0" disallow="bicycle" speed="6.87" length="14.74" shape="1093.45,-1938.88 1096.40,-1937.20 1100.37,-1937.17 1104.10,-1938.55 1106.31,-1941.12"/>
    </edge>
    <edge id=":10_27" function="internal">
        <lane id=":10_27_0" index="0" disallow="bicycle" speed="3.65" length="4.67" shape="1093.45,-1938.88 1094.82,-1938.43 1095.69,-1938.61 1096.07,-1939.41 1095.96,-1940.85"/>
    </edge>
    <edge id=":1004_0" function="internal">
        <lane id=":1004_0_0" index="0" allow="bicycle" speed="4.83" length="4.02" width="1.00" shape="1125.30,-2184.62 1124.25,-2184.44 1123.32,-2184.59 1122.50,-2185.06 1121.79,-2185.86"/>
    </edge>
    <edge id=":1004_1" function="internal">
        <lane id=":1004_1_0" index="0" allow="bicycle" speed="12.83" length="12.13" width="1.00" shape="1125.30,-2184.62 1121.91,-2183.50 1119.68,-2182.36 1117.88,-2180.62 1115.77,-2177.75"/>
    </edge>
    <edge id=":1004_2" function="internal">
        <lane id=":1004_2_0" index="0" disallow="bicycle" speed="6.41" length="3.50" shape="1125.91,-2182.61 1124.16,-2182.32 1122.60,-2182.57 1122.48,-2182.64"/>
    </edge>
    <edge id=":1004_3" function="internal">
        <lane id=":1004_3_0" index="0" disallow="bicycle" speed="12.18" length="10.71" shape="1125.91,-2182.61 1122.92,-2181.63 1120.95,-2180.62 1119.36,-2179.09 1117.50,-2176.56"/>
    </edge>
    <edge id=":1004_4" function="internal">
        <lane id=":1004_4_0" index="0" disallow="bicycle" speed="3.65" length="2.34" shape="1125.91,-2182.61 1124.99,-2181.49 1124.84,-2180.61"/>
    </edge>
    <edge id=":1004_15" function="internal">
        <lane id=":1004_15_0" index="0" disallow="bicycle" speed="6.41" length="3.21" shape="1122.48,-2182.64 1121.23,-2183.35 1120.05,-2184.68"/>
    </edge>
    <edge id=":1004_16" function="internal">
        <lane id=":1004_16_0" index="0" disallow="bicycle" speed="3.65" length="2.34" shape="1124.84,-2180.61 1125.46,-2179.96 1126.84,-2179.55"/>
    </edge>
    <edge id=":1004_5" function="internal">
        <lane id=":1004_5_0" index="0" allow="bicycle" speed="9.84" length="7.10" width="1.00" shape="1121.86,-2173.54 1123.09,-2175.22 1124.15,-2176.23 1125.46,-2176.89 1127.45,-2177.54"/>
    </edge>
    <edge id=":1004_6" function="internal">
        <lane id=":1004_6_0" index="0" allow="bicycle" speed="8.85" length="7.13" width="1.00" shape="1121.86,-2173.54 1123.43,-2176.58 1123.94,-2179.65 1123.83,-2180.24"/>
    </edge>
    <edge id=":1004_7" function="internal">
        <lane id=":1004_7_0" index="0" disallow="bicycle" speed="10.92" length="8.53" shape="1120.13,-2174.74 1121.62,-2176.75 1122.89,-2177.97 1124.46,-2178.77 1126.84,-2179.55"/>
    </edge>
    <edge id=":1004_8" function="internal">
        <lane id=":1004_8_0" index="0" disallow="bicycle" speed="8.16" length="4.72" shape="1120.13,-2174.74 1121.39,-2177.19 1121.71,-2179.13"/>
    </edge>
    <edge id=":1004_9" function="internal">
        <lane id=":1004_9_0" index="0" disallow="bicycle" speed="3.65" length="2.34" shape="1120.13,-2174.74 1120.16,-2176.18 1119.73,-2176.96"/>
    </edge>
    <edge id=":1004_17" function="internal">
        <lane id=":1004_17_0" index="0" allow="bicycle" speed="8.85" length="6.04" width="1.00" shape="1123.83,-2180.24 1123.39,-2182.74 1121.79,-2185.86"/>
    </edge>
    <edge id=":1004_18" function="internal">
        <lane id=":1004_18_0" index="0" disallow="bicycle" speed="8.16" length="5.91" shape="1121.71,-2179.13 1121.80,-2179.66 1121.35,-2182.15 1120.05,-2184.68"/>
    </edge>
    <edge id=":1004_19" function="internal">
        <lane id=":1004_19_0" index="0" disallow="bicycle" speed="3.65" length="2.34" shape="1119.73,-2176.96 1118.84,-2177.09 1117.50,-2176.56"/>
    </edge>
    <edge id=":1004_10" function="internal">
        <lane id=":1004_10_0" index="0" allow="bicycle" speed="5.10" length="4.22" width="1.00" shape="1115.67,-2181.69 1116.20,-2180.68 1116.40,-2179.68 1116.25,-2178.71 1115.77,-2177.75"/>
    </edge>
    <edge id=":1004_11" function="internal">
        <lane id=":1004_11_0" index="0" allow="bicycle" speed="8.66" length="13.48" width="1.00" shape="1115.67,-2181.69 1118.04,-2179.03 1120.80,-2177.45 1123.93,-2176.95 1127.45,-2177.54"/>
    </edge>
    <edge id=":1004_12" function="internal">
        <lane id=":1004_12_0" index="0" disallow="bicycle" speed="6.63" length="6.76" shape="1117.41,-2182.88 1118.24,-2181.26 1118.54,-2179.67 1118.29,-2178.10 1117.50,-2176.56"/>
    </edge>
    <edge id=":1004_13" function="internal">
        <lane id=":1004_13_0" index="0" disallow="bicycle" speed="7.96" length="10.80" shape="1117.41,-2182.88 1119.31,-2180.74 1121.51,-2179.48 1124.02,-2179.08 1126.84,-2179.55"/>
    </edge>
    <edge id=":1004_14" function="internal">
        <lane id=":1004_14_0" index="0" disallow="bicycle" speed="3.65" length="4.67" shape="1117.41,-2182.88 1118.74,-2182.33 1119.63,-2182.45 1120.07,-2183.23 1120.05,-2184.68"/>
    </edge>
    <edge id=":1010_0" function="internal">
        <lane id=":1010_0_0" index="0" allow="bicycle" speed="12.98" length="22.53" width="1.00" shape="1156.22,-2438.04 1153.37,-2442.55 1149.43,-2446.04 1144.38,-2448.50 1138.24,-2449.95"/>
    </edge>
    <edge id=":1010_1" function="internal">
        <lane id=":1010_1_0" index="0" allow="bicycle" speed="8.72" length="14.05" width="1.00" shape="1156.22,-2438.04 1152.87,-2443.00 1148.77,-2444.85 1145.31,-2443.95"/>
    </edge>
    <edge id=":1010_2" function="internal">
        <lane id=":1010_2_0" index="0" disallow="bicycle" speed="12.48" length="20.42" shape="1154.31,-2437.17 1151.75,-2441.21 1148.16,-2444.34 1143.56,-2446.56 1137.95,-2447.87"/>
    </edge>
    <edge id=":1010_3" function="internal">
        <lane id=":1010_3_0" index="0" disallow="bicycle" speed="8.05" length="8.67" shape="1154.31,-2437.17 1151.64,-2441.06 1148.34,-2442.45 1147.99,-2442.36"/>
    </edge>
    <edge id=":1010_4" function="internal">
        <lane id=":1010_4_0" index="0" disallow="bicycle" speed="3.65" length="2.56" shape="1154.31,-2437.17 1153.08,-2437.93 1152.19,-2437.96 1152.05,-2437.78"/>
    </edge>
    <edge id=":1010_15" function="internal">
        <lane id=":1010_15_0" index="0" allow="bicycle" speed="8.72" length="8.51" width="1.00" shape="1145.31,-2443.95 1143.93,-2443.60 1138.34,-2439.24"/>
    </edge>
    <edge id=":1010_16" function="internal">
        <lane id=":1010_16_0" index="0" disallow="bicycle" speed="8.05" length="9.55" shape="1147.99,-2442.36 1144.40,-2441.35 1139.82,-2437.75"/>
    </edge>
    <edge id=":1010_17" function="internal">
        <lane id=":1010_17_0" index="0" disallow="bicycle" speed="3.65" length="2.12" shape="1152.05,-2437.78 1151.63,-2437.26 1151.40,-2435.84"/>
    </edge>
    <edge id=":1010_5" function="internal">
        <lane id=":1010_5_0" index="0" allow="bicycle" speed="5.06" length="7.32" width="1.00" shape="1143.55,-2433.99 1145.57,-2435.68 1147.23,-2436.41 1148.54,-2436.17 1149.49,-2434.96"/>
    </edge>
    <edge id=":1010_6" function="internal">
        <lane id=":1010_6_0" index="0" allow="bicycle" speed="8.41" length="24.70" width="1.00" shape="1143.55,-2433.99 1148.27,-2439.99 1148.96,-2444.65 1145.61,-2447.97 1138.24,-2449.95"/>
    </edge>
    <edge id=":1010_7" function="internal">
        <lane id=":1010_7_0" index="0" disallow="bicycle" speed="6.55" length="11.62" shape="1142.07,-2435.48 1145.10,-2437.93 1147.67,-2438.80 1149.77,-2438.11 1151.40,-2435.84"/>
    </edge>
    <edge id=":1010_8" function="internal">
        <lane id=":1010_8_0" index="0" disallow="bicycle" speed="7.63" length="19.17" shape="1142.07,-2435.48 1145.74,-2440.14 1146.27,-2443.76 1143.67,-2446.33 1137.95,-2447.87"/>
    </edge>
    <edge id=":1010_9" function="internal">
        <lane id=":1010_9_0" index="0" disallow="bicycle" speed="3.65" length="4.67" shape="1142.07,-2435.48 1142.36,-2436.89 1142.08,-2437.74 1141.23,-2438.03 1139.82,-2437.75"/>
    </edge>
    <edge id=":1010_10" function="internal">
        <lane id=":1010_10_0" index="0" allow="bicycle" speed="4.00" length="5.22" width="1.00" shape="1137.22,-2442.62 1138.78,-2442.20 1139.49,-2441.50 1139.34,-2440.51 1138.34,-2439.24"/>
    </edge>
    <edge id=":1010_11" function="internal">
        <lane id=":1010_11_0" index="0" allow="bicycle" speed="10.65" length="15.10" width="1.00" shape="1137.22,-2442.62 1141.50,-2441.65 1144.97,-2440.05 1147.63,-2437.82 1149.49,-2434.96"/>
    </edge>
    <edge id=":1010_12" function="internal">
        <lane id=":1010_12_0" index="0" disallow="bicycle" speed="5.88" length="10.75" shape="1137.51,-2444.70 1140.72,-2443.84 1142.17,-2442.39 1141.87,-2440.36 1139.82,-2437.75"/>
    </edge>
    <edge id=":1010_13" function="internal">
        <lane id=":1010_13_0" index="0" disallow="bicycle" speed="11.49" length="17.20" shape="1137.51,-2444.70 1142.32,-2443.60 1146.24,-2441.75 1149.26,-2439.16 1151.40,-2435.84"/>
    </edge>
    <edge id=":1010_14" function="internal">
        <lane id=":1010_14_0" index="0" disallow="bicycle" speed="3.65" length="2.17" shape="1137.51,-2444.70 1138.81,-2445.33 1139.22,-2445.93"/>
    </edge>
    <edge id=":1010_18" function="internal">
        <lane id=":1010_18_0" index="0" disallow="bicycle" speed="3.65" length="2.50" shape="1139.22,-2445.93 1139.31,-2446.06 1139.03,-2446.91 1137.95,-2447.87"/>
    </edge>
    <edge id=":1026_0" function="internal">
        <lane id=":1026_0_0" index="0" allow="bicycle" speed="5.00" length="5.53" width="1.00" shape="972.45,-2081.45 972.02,-2080.00 971.23,-2079.03 970.08,-2078.53 968.56,-2078.51"/>
    </edge>
    <edge id=":1026_1" function="internal">
        <lane id=":1026_1_0" index="0" allow="bicycle" speed="13.89" length="14.18" width="1.00" shape="972.45,-2081.45 971.85,-2077.29 971.57,-2074.42 971.58,-2071.53 971.85,-2067.34"/>
    </edge>
    <edge id=":1026_2" function="internal">
        <lane id=":1026_2_0" index="0" disallow="bicycle" speed="6.50" length="3.89" shape="974.53,-2081.15 973.84,-2078.82 972.92,-2077.68"/>
    </edge>
    <edge id=":1026_3" function="internal">
        <lane id=":1026_3_0" index="0" disallow="bicycle" speed="13.89" length="13.72" shape="974.53,-2081.15 973.94,-2077.12 973.68,-2074.34 973.69,-2071.55 973.94,-2067.49"/>
    </edge>
    <edge id=":1026_4" function="internal">
        <lane id=":1026_4_0" index="0" disallow="bicycle" speed="3.65" length="2.34" shape="974.53,-2081.15 975.14,-2079.84 975.87,-2079.33"/>
    </edge>
    <edge id=":1026_15" function="internal">
        <lane id=":1026_15_0" index="0" disallow="bicycle" speed="6.50" length="4.99" shape="972.92,-2077.68 972.57,-2077.26 970.72,-2076.46 968.30,-2076.43"/>
    </edge>
    <edge id=":1026_16" function="internal">
        <lane id=":1026_16_0" index="0" disallow="bicycle" speed="3.65" length="2.34" shape="975.87,-2079.33 976.72,-2079.61 977.69,-2080.68"/>
    </edge>
    <edge id=":1026_5" function="internal">
        <lane id=":1026_5_0" index="0" allow="bicycle" speed="13.89" length="12.56" width="1.00" shape="979.23,-2067.87 979.00,-2071.59 978.99,-2074.14 979.24,-2076.68 979.77,-2080.37"/>
    </edge>
    <edge id=":1026_6" function="internal">
        <lane id=":1026_6_0" index="0" allow="bicycle" speed="9.13" length="9.03" width="1.00" shape="979.23,-2067.87 978.31,-2072.05 976.22,-2075.21 975.42,-2075.74"/>
    </edge>
    <edge id=":1026_7" function="internal">
        <lane id=":1026_7_0" index="0" disallow="bicycle" speed="13.89" length="13.02" shape="977.14,-2067.72 976.89,-2071.57 976.88,-2074.22 977.14,-2076.86 977.69,-2080.68"/>
    </edge>
    <edge id=":1026_8" function="internal">
        <lane id=":1026_8_0" index="0" disallow="bicycle" speed="8.48" length="5.47" shape="977.14,-2067.72 976.38,-2071.13 975.28,-2072.77"/>
    </edge>
    <edge id=":1026_9" function="internal">
        <lane id=":1026_9_0" index="0" disallow="bicycle" speed="3.65" length="2.34" shape="977.14,-2067.72 976.25,-2068.86 975.42,-2069.20"/>
    </edge>
    <edge id=":1026_17" function="internal">
        <lane id=":1026_17_0" index="0" allow="bicycle" speed="9.13" length="7.49" width="1.00" shape="975.42,-2075.74 972.98,-2077.36 968.56,-2078.51"/>
    </edge>
    <edge id=":1026_18" function="internal">
        <lane id=":1026_18_0" index="0" disallow="bicycle" speed="8.48" length="8.14" shape="975.28,-2072.77 974.65,-2073.72 971.96,-2075.48 968.30,-2076.43"/>
    </edge>
    <edge id=":1026_19" function="internal">
        <lane id=":1026_19_0" index="0" disallow="bicycle" speed="3.65" length="2.34" shape="975.42,-2069.20 974.66,-2068.74 973.94,-2067.49"/>
    </edge>
    <edge id=":1026_10" function="internal">