<?xml version="1.0" encoding="UTF-8"?>

<!-- generated on 2021-10-04 08:26:16 by Eclipse SUMO netedit Version 1.10.0
<configuration xmlns:xsi="http://www.w3.org/2001/XMLSchema-instance" xsi:noNamespaceSchemaLocation="http://sumo.dlr.de/xsd/netconvertConfiguration.xsd">

    <output>
        <plain-output-prefix value="D:\baitap\baitap"/>
    </output>

    <processing>
        <offset.disable-normalization value="true"/>
    </processing>

    <junctions>
        <no-turnarounds value="true"/>
    </junctions>

    <report>
        <aggregate-warnings value="5"/>
    </report>

</configuration>
-->

<edges version="1.9" xmlns:xsi="http://www.w3.org/2001/XMLSchema-instance" xsi:noNamespaceSchemaLocation="http://sumo.dlr.de/xsd/edges_file.xsd">
    <edge id="gneE1" from="gneJ2" to="gneJ3" priority="-1" numLanes="1" speed="13.89"/>
    <edge id="gneE2" from="gneJ3" to="gneJ4" priority="-1" numLanes="1" speed="13.89"/>
    <edge id="gneE3" from="gneJ4" to="gneJ5" priority="-1" numLanes="1" speed="13.89"/>
    <edge id="gneE4" from="gneJ5" to="gneJ6" priority="-1" numLanes="1" speed="13.89"/>
</edges>
