<?xml version="1.0" encoding="UTF-8"?>

<!-- generated on 2021-10-04 08:26:16 by Eclipse SUMO netedit Version 1.10.0
<configuration xmlns:xsi="http://www.w3.org/2001/XMLSchema-instance" xsi:noNamespaceSchemaLocation="http://sumo.dlr.de/xsd/netconvertConfiguration.xsd">

    <output>
        <plain-output-prefix value="D:\baitap\baitap"/>
    </output>

    <processing>
        <offset.disable-normalization value="true"/>
    </processing>

    <junctions>
        <no-turnarounds value="true"/>
    </junctions>

    <report>
        <aggregate-warnings value="5"/>
    </report>

</configuration>
-->

<nodes version="1.9" xmlns:xsi="http://www.w3.org/2001/XMLSchema-instance" xsi:noNamespaceSchemaLocation="http://sumo.dlr.de/xsd/nodes_file.xsd">
    <location netOffset="0.00,0.00" convBoundary="-100.00,100.00,300.00,200.00" origBoundary="10000000000.00,10000000000.00,-10000000000.00,-10000000000.00" projParameter="!"/>

    <node id="gneJ2" x="-100.00" y="100.00" type="dead_end"/>
    <node id="gneJ3" x="0.00" y="200.00" type="priority"/>
    <node id="gneJ4" x="100.00" y="100.00" type="priority"/>
    <node id="gneJ5" x="200.00" y="200.00" type="priority"/>
    <node id="gneJ6" x="300.00" y="100.00" type="dead_end"/>
</nodes>
