<?xml version="1.0" encoding="UTF-8"?>

<!-- generated on 2021-10-03 21:08:31 by Eclipse SUMO GUI Version 1.10.0
-->

<configuration xmlns:xsi="http://www.w3.org/2001/XMLSchema-instance" xsi:noNamespaceSchemaLocation="http://sumo.dlr.de/xsd/sumoConfiguration.xsd">

    <input>
        <net-file value="D:\baitap\net.net.xml"/>
        <route-files value="D:\baitap\baitap.rou.xml"/>
    </input>

</configuration>
