<?xml version="1.0" encoding="UTF-8"?>

<!-- generated on 2021-10-04 08:26:16 by Eclipse SUMO netedit Version 1.10.0
<configuration xmlns:xsi="http://www.w3.org/2001/XMLSchema-instance" xsi:noNamespaceSchemaLocation="http://sumo.dlr.de/xsd/netconvertConfiguration.xsd">

    <output>
        <plain-output-prefix value="D:\baitap\baitap"/>
    </output>

    <processing>
        <offset.disable-normalization value="true"/>
    </processing>

    <junctions>
        <no-turnarounds value="true"/>
    </junctions>

    <report>
        <aggregate-warnings value="5"/>
    </report>

</configuration>
-->

<connections version="1.9" xmlns:xsi="http://www.w3.org/2001/XMLSchema-instance" xsi:noNamespaceSchemaLocation="http://sumo.dlr.de/xsd/connections_file.xsd">
    <connection from="gneE1" to="gneE2" fromLane="0" toLane="0"/>

    <connection from="gneE2" to="gneE3" fromLane="0" toLane="0"/>

    <connection from="gneE3" to="gneE4" fromLane="0" toLane="0"/>

</connections>
