<?xml version="1.0" encoding="UTF-8"?>

<!-- generated on 2021-10-11 12:41:00 by Eclipse SUMO netedit Version 1.10.0
<configuration xmlns:xsi="http://www.w3.org/2001/XMLSchema-instance" xsi:noNamespaceSchemaLocation="http://sumo.dlr.de/xsd/netconvertConfiguration.xsd">

    <input>
        <sumo-net-file value="D:\test%206%20lane\test.net.xml"/>
    </input>

    <output>
        <output-file value="D:\test%206%20lane\test.net.xml"/>
    </output>

    <processing>
        <geometry.min-radius.fix.railways value="false"/>
        <geometry.max-grade.fix value="false"/>
        <offset.disable-normalization value="true"/>
        <lefthand value="false"/>
    </processing>

    <junctions>
        <no-turnarounds value="true"/>
        <junctions.corner-detail value="5"/>
        <junctions.limit-turn-speed value="5.5"/>
        <rectangular-lane-cut value="false"/>
    </junctions>

    <pedestrian>
        <walkingareas value="false"/>
    </pedestrian>

    <netedit>
        <route-files value="D:\test%206%20lane\test.rou.xml"/>
    </netedit>

    <report>
        <aggregate-warnings value="5"/>
    </report>

</configuration>
-->

<routes xmlns:xsi="http://www.w3.org/2001/XMLSchema-instance" xsi:noNamespaceSchemaLocation="http://sumo.dlr.de/xsd/routes_file.xsd">
    <flow id="flow_0" begin="0.00" departSpeed="3.00" color="white" from="gneE28" to="gneE37" via="gneE27 gneE8 gneE9" end="3600.00" number="1800"/>
    <flow id="flow_1" begin="0.00" departSpeed="3.00" color="black" from="gneE29" to="gneE32" via="gneE27 gneE8 gneE10 gneE16 gneE35" end="3600.00" number="1800"/>
    <flow id="flow_2" begin="0.00" departSpeed="3.00" color="red" from="gneE21" to="gneE32" via="gneE17 gneE15 gneE16 gneE35" end="3600.00" number="1800"/>
    <flow id="flow_3" begin="0.00" departSpeed="3.00" color="green" from="gneE22" to="gneE37" via="gneE17 gneE15 gneE11 gneE9" end="3600.00" number="1800"/>
    <flow id="flow_4" begin="0.00" departSpeed="3.00" color="blue" from="gneE23" to="gneE32" via="gneE17 gneE15 gneE11 gneE7 gneE31" end="3600.00" number="1800"/>
    <flow id="flow_5" begin="0.00" departSpeed="3.00" from="gneE33" to="gneE16" end="3600.00" number="1800"/>
    <flow id="flow_6" begin="0.00" departSpeed="3.00" color="magenta" from="gneE34" to="gneE16" end="3600.00" number="1800"/>
    <flow id="flow_7" begin="0.00" departSpeed="3.00" color="128,0,128" from="gneE29" to="gneE32" via="gneE27 gneE31" end="3600.00" number="1800"/>
</routes>
